/*--------------------------------*- C++ -*----------------------------------*\
| =========                 |                                                 |
| \\      /  F ield         | OpenFOAM: The Open Source CFD Toolbox           |
|  \\    /   O peration     | Version:  v2006                                 |
|   \\  /    A nd           | Website:  www.openfoam.com                      |
|    \\/     M anipulation  |                                                 |
\*---------------------------------------------------------------------------*/
FoamFile
{
    version     2.0;
    format      ascii;
    class       volScalarField;
    object      p;
}
// * * * * * * * * * * * * * * * * * * * * * * * * * * * * * * * * * * * * * //

dimensions      [1 -1 -2 0 0 0 0];
pOut            1.;
internalField   uniform $pOut;

boundaryField
{
    Inlet 
    {
      type            	totalPressure;
      gamma		          1.4;
      psi		            thermo:psi;
      p0		            uniform 1.005357351;
      value		          $internalField;
    }

    Outlet
    {
      
      type            freestreamPressure;
      freestreamValue uniform $pOut;

      /*
      type		fixedValue;
      value		$internalField;
      */
    }
    
    Top 
    {
      type		zeroGradient;
    }

    Side
    {
        type		empty;
    }

    Airfoil
    {
        type		zeroGradient;
    }

    Floor
    {
        type		zeroGradient;
    }
}


// ************************************************************************* //
