/*--------------------------------*- C++ -*----------------------------------*\
| =========                 |                                                 |
| \\      /  F ield         | OpenFOAM: The Open Source CFD Toolbox           |
|  \\    /   O peration     | Version:  v2006                                 |
|   \\  /    A nd           | Website:  www.openfoam.com                      |
|    \\/     M anipulation  |                                                 |
\*---------------------------------------------------------------------------*/
FoamFile
{
    version     2.0;
    format      ascii;
    class       volScalarField;
    object      T;
}
// * * * * * * * * * * * * * * * * * * * * * * * * * * * * * * * * * * * * * //

dimensions      [0 0 0 1 0 0 0];

internalField   uniform 1.;

boundaryField
{
    Inlet
    {
        type		totalTemperature;
        gamma		1.4;
        T0		uniform 1.001527752;
        psi		thermo:psi;
    }

    Outlet
    {
        type            zeroGradient;
    }

    Top
    {
        type            zeroGradient;
    }

    Side
    {
        type            empty;
    }

    Airfoil
    {
        type            zeroGradient;
    }

    Floor
    {
        type            zeroGradient;
    }
}

// ************************************************************************* //
